# Relaxed CIF file of novel perovskite as generated by the TL-VAE Model 
# In the Proceedings of the 36th Canadian AI Conference (Author: E.T. Chenebuah)
# By E.T. Chenebuah
data_GaPdO3

_cell_length_a                         5.177782
_cell_length_b                         5.634529
_cell_length_c                         8.128832
_cell_angle_alpha                      68.147034
_cell_angle_beta                       134.302170
_cell_angle_gamma                      116.479897
_cell_volume                           151.231405
_space_group_name_H-M_alt              'P 1'
_space_group_IT_number                 1

loop_
_space_group_symop_operation_xyz
   'x, y, z'

loop_
   _atom_site_label
   _atom_site_occupancy
   _atom_site_fract_x
   _atom_site_fract_y
   _atom_site_fract_z
   _atom_site_adp_type
   _atom_site_B_iso_or_equiv
   _atom_site_type_symbol
   Ga1        1.0     0.298184    -0.041401    -0.079260    Biso  1.000000 Ga
   Ga2        1.0     0.487364     0.643647     0.771492    Biso  1.000000 Ga
   Pd1        1.0     0.172403     0.876685     0.281954    Biso  1.000000 Pd
   Pd2        1.0     0.724580     0.381644     0.622674    Biso  1.000000 Pd
   O1         1.0     0.804641     1.072739     0.070481    Biso  1.000000 O
   O2         1.0     0.435808     0.022539     0.560239    Biso  1.000000 O
   O3         1.0     0.401433     0.585085     0.514457    Biso  1.000000 O
   O4         1.0     1.007341     0.737189     1.014893    Biso  1.000000 O
   O5         1.0     0.120029     0.732496     0.719588    Biso  1.000000 O
   O6         1.0     0.202309     0.286990     0.796809    Biso  1.000000 O
