# Relaxed CIF file of novel perovskite as generated by the TL-VAE Model 
# In the Proceedings of the 36th Canadian AI Conference (Author: E.T. Chenebuah)
data_AlPtO3

_cell_length_a                         3.652674
_cell_length_b                         6.749120
_cell_length_c                         6.702643
_cell_angle_alpha                      124.722740
_cell_angle_beta                       74.926193
_cell_angle_gamma                      101.098381
_cell_volume                           130.932266
_space_group_name_H-M_alt              'P 1'
_space_group_IT_number                 1

loop_
_space_group_symop_operation_xyz
   'x, y, z'

loop_
   _atom_site_label
   _atom_site_occupancy
   _atom_site_fract_x
   _atom_site_fract_y
   _atom_site_fract_z
   _atom_site_adp_type
   _atom_site_B_iso_or_equiv
   _atom_site_type_symbol
   Al1        1.0     0.129038     0.048048     0.102761    Biso  1.000000 Al
   Al2        1.0     0.753562     0.993230     0.714044    Biso  1.000000 Al
   Pt1        1.0     0.238175     0.692746     0.347491    Biso  1.000000 Pt
   Pt2        1.0     0.608204     0.477218     0.452224    Biso  1.000000 Pt
   O1         1.0     1.001462     0.847560     0.225940    Biso  1.000000 O
   O2         1.0     0.330788     0.167448     0.900798    Biso  1.000000 O
   O3         1.0     0.654589    -0.038490     0.419715    Biso  1.000000 O
   O4         1.0     0.664267     0.968048     0.987652    Biso  1.000000 O
   O5         1.0     0.085215     0.344348     0.417161    Biso  1.000000 O
   O6         1.0     0.114009     0.236586     0.793235    Biso  1.000000 O
