# Relaxed CIF file of novel perovskite as generated by the TL-VAE Model 
# In the Proceedings of the 36th Canadian AI Conference (Author: E.T. Chenebuah)
data_AlPtS3

_cell_length_a                         5.706353
_cell_length_b                         5.878654
_cell_length_c                         8.009787
_cell_angle_alpha                      132.572189
_cell_angle_beta                       72.132820
_cell_angle_gamma                      102.451042
_cell_volume                           188.317134
_space_group_name_H-M_alt              'P 1'
_space_group_IT_number                 1

loop_
_space_group_symop_operation_xyz
   'x, y, z'

loop_
   _atom_site_label
   _atom_site_occupancy
   _atom_site_fract_x
   _atom_site_fract_y
   _atom_site_fract_z
   _atom_site_adp_type
   _atom_site_B_iso_or_equiv
   _atom_site_type_symbol
   Al1        1.0     0.195882     0.056686     0.058166    Biso  1.000000 Al
   Al2        1.0     0.521389     0.889783     0.613342    Biso  1.000000 Al
   Pt1        1.0     0.203307     0.644157     0.349975    Biso  1.000000 Pt
   Pt2        1.0     0.513042     0.303570     0.322530    Biso  1.000000 Pt
   S1         1.0     0.989907     0.799353     0.209386    Biso  1.000000 S
   S2         1.0     0.412742     0.382864     0.965192    Biso  1.000000 S
   S3         1.0     0.727139     0.149699     0.463564    Biso  1.000000 S
   S4         1.0     0.800676     0.960952     0.970964    Biso  1.000000 S
   S5         1.0     0.300251     0.562576     0.706066    Biso  1.000000 S
   S6         1.0    -0.085027    -0.012905     0.701831    Biso  1.000000 S
