# Relaxed CIF file of novel perovskite as generated by the TL-VAE Model 
# In the Proceedings of the 36th Canadian AI Conference (Author: E.T. Chenebuah)
data_GaOPd3

_cell_length_a                         4.905985
_cell_length_b                         6.333154
_cell_length_c                         5.402429
_cell_angle_alpha                      80.561371
_cell_angle_beta                       117.178459
_cell_angle_gamma                      103.549355
_cell_volume                           144.850897
_space_group_name_H-M_alt              'P 1'
_space_group_IT_number                 1

loop_
_space_group_symop_operation_xyz
   'x, y, z'

loop_
   _atom_site_label
   _atom_site_occupancy
   _atom_site_fract_x
   _atom_site_fract_y
   _atom_site_fract_z
   _atom_site_adp_type
   _atom_site_B_iso_or_equiv
   _atom_site_type_symbol
   Ga1        1.0     0.551018     0.002190     0.306414    Biso  1.000000 Ga
   Ga2        1.0     0.204136     0.507078     0.561728    Biso  1.000000 Ga
   O1         1.0     0.254691     0.757217     0.327210    Biso  1.000000 O
   O2         1.0     0.822365     0.561723     0.533493    Biso  1.000000 O
   Pd1        1.0     0.570102     0.860088    -0.108183    Biso  1.000000 Pd
   Pd2        1.0     0.600607     0.265198     0.657283    Biso  1.000000 Pd
   Pd3        1.0     0.020149     0.204823     0.214119    Biso  1.000000 Pd
   Pd4        1.0     1.026642     0.646185     0.937331    Biso  1.000000 Pd
   Pd5        1.0     0.084881     1.074690     0.759266    Biso  1.000000 Pd
   Pd6        1.0     0.519512     0.418418     1.084669    Biso  1.000000 Pd
